CRYSTAL
PRIMVEC
    3.005911    0.000000    0.000000
    0.000000    3.005911    0.000000
    0.000000    0.000000   39.786724
PRIMCOORD
   10 1
   12    0.000000    0.000000    0.000000    0.000000    0.000000    0.004779
   12    1.502955    1.502955    2.172317    0.000000    0.000000    0.000001
    8    1.502955    1.502955    0.000000    0.000000    0.000000   -0.004481
    8    0.000000    0.000000    2.103237    0.000000    0.000000   -0.000025
   27    0.000000    0.000000    4.169284    0.000000    0.000000   -0.000037
   27    1.502955    1.502955    5.258992    0.000000    0.000000   -0.000039
   78    0.000000    0.000000    6.831103    0.000000    0.000000   -0.000045
   78    1.502955    1.502955    8.673331    0.000000    0.000000   -0.000025
   78    0.000000    0.000000   10.430370    0.000000    0.000000   -0.000029
   78    1.502955    1.502955   12.145563    0.000000    0.000000   -0.000027
